  Page 1                                    Sat Feb  5 21:46:57 2022

  ******************************************************************
  *                           E P A N E T                          *
  *                   Hydraulic and Water Quality                  *
  *                   Analysis for Pipe Networks                   *
  *                         Version 2.2                            *
  ******************************************************************
  
  Analysis begun Sat Feb  5 21:46:57 2022

  Analysis ended Sat Feb  5 21:46:57 2022
