  Page 1                                    Wed Feb 16 20:15:15 2022

  ******************************************************************
  *                           E P A N E T                          *
  *                   Hydraulic and Water Quality                  *
  *                   Analysis for Pipe Networks                   *
  *                         Version 2.2                            *
  ******************************************************************
  
  Analysis begun Wed Feb 16 20:15:15 2022

  Analysis ended Wed Feb 16 20:15:16 2022
