  Page 1                                    Tue Feb 15 23:10:40 2022

  ******************************************************************
  *                           E P A N E T                          *
  *                   Hydraulic and Water Quality                  *
  *                   Analysis for Pipe Networks                   *
  *                         Version 2.2                            *
  ******************************************************************
  
  Analysis begun Tue Feb 15 23:10:40 2022

  Analysis ended Tue Feb 15 23:10:40 2022
