  Page 1                                    Sun Feb  6 23:07:47 2022

  ******************************************************************
  *                           E P A N E T                          *
  *                   Hydraulic and Water Quality                  *
  *                   Analysis for Pipe Networks                   *
  *                         Version 2.2                            *
  ******************************************************************
  
  Analysis begun Sun Feb  6 23:07:47 2022

  Analysis ended Sun Feb  6 23:07:47 2022
